Version 4
SHEET 1 1304 812
WIRE 16 -128 -16 -128
WIRE 1008 -128 96 -128
WIRE -16 -32 -16 -128
WIRE 16 -32 -16 -32
WIRE 128 -32 96 -32
WIRE -400 -16 -416 -16
WIRE -288 -16 -320 -16
WIRE -528 96 -560 96
WIRE -416 96 -416 -16
WIRE -416 96 -448 96
WIRE -384 96 -416 96
WIRE 80 96 80 80
WIRE 512 96 512 80
WIRE 944 96 944 80
WIRE -288 112 -288 -16
WIRE -288 112 -320 112
WIRE -256 112 -288 112
WIRE -160 112 -176 112
WIRE -144 112 -160 112
WIRE -16 112 -16 -32
WIRE -16 112 -64 112
WIRE 48 112 -16 112
WIRE 480 112 416 112
WIRE 912 112 848 112
WIRE -384 128 -416 128
WIRE 128 128 128 -32
WIRE 128 128 112 128
WIRE 144 128 128 128
WIRE 560 128 544 128
WIRE 576 128 560 128
WIRE 1008 128 1008 -128
WIRE 1008 128 976 128
WIRE 1152 128 1008 128
WIRE -416 144 -416 128
WIRE 48 144 16 144
WIRE 480 144 448 144
WIRE 912 144 880 144
WIRE -160 160 -160 112
WIRE -112 160 -160 160
WIRE 448 160 448 144
WIRE 880 160 880 144
WIRE 80 176 80 160
WIRE 512 176 512 160
WIRE 944 176 944 160
WIRE 320 224 256 224
WIRE 752 224 688 224
WIRE 320 240 320 224
WIRE 752 240 752 224
WIRE -560 272 -560 96
WIRE 128 288 128 128
WIRE 160 288 128 288
WIRE 256 288 256 224
WIRE 256 288 240 288
WIRE 272 288 256 288
WIRE 416 288 416 112
WIRE 416 288 352 288
WIRE 464 288 416 288
WIRE 560 288 560 128
WIRE 560 288 528 288
WIRE 592 288 560 288
WIRE 688 288 688 224
WIRE 688 288 672 288
WIRE 704 288 688 288
WIRE 848 288 848 112
WIRE 848 288 784 288
WIRE 896 288 848 288
WIRE 1008 288 1008 128
WIRE 1008 288 960 288
WIRE 1152 288 1136 288
WIRE -256 352 -560 352
WIRE -160 352 -256 352
WIRE -144 352 -160 352
WIRE 16 352 16 144
WIRE 16 352 -64 352
WIRE 48 352 16 352
WIRE 560 352 560 288
WIRE 560 352 128 352
WIRE 1008 352 1008 288
WIRE 1136 352 1136 288
WIRE -256 384 -256 352
WIRE -160 400 -160 352
WIRE -112 400 -160 400
WIRE -512 416 -544 416
WIRE -416 416 -512 416
WIRE -512 448 -512 416
WIRE 992 448 992 432
WIRE 992 448 672 448
WIRE 1024 448 1024 432
WIRE 1152 448 1152 432
WIRE 1152 448 1024 448
WIRE 816 496 800 496
WIRE 928 496 896 496
WIRE -416 512 -416 416
WIRE -512 544 -512 512
WIRE -512 544 -576 544
WIRE -576 560 -576 544
WIRE -512 576 -512 544
WIRE 672 608 672 448
WIRE 704 608 672 608
WIRE 800 608 800 496
WIRE 800 608 784 608
WIRE 832 608 800 608
WIRE 928 624 928 496
WIRE 928 624 896 624
WIRE 1120 624 1120 432
WIRE 1120 624 928 624
WIRE -512 672 -512 640
WIRE -512 672 -544 672
WIRE -416 672 -416 592
WIRE -416 672 -512 672
FLAG -256 384 0
FLAG 144 128 HIGH
IOPIN 144 128 Out
FLAG 448 160 0
FLAG 880 160 0
FLAG 1152 128 LOW
IOPIN 1152 128 Out
FLAG 80 176 V-
FLAG 512 176 V-
FLAG 944 176 V-
FLAG 80 80 V+
FLAG 512 80 V+
FLAG 944 80 V+
FLAG -576 560 0
FLAG -544 416 V+
FLAG -544 672 V-
FLAG -416 144 0
FLAG -352 80 V+
FLAG -352 144 V-
FLAG 576 128 BAND
IOPIN 576 128 Out
FLAG 864 592 V+
FLAG 864 656 V-
FLAG 1152 288 LOW-
IOPIN 1152 288 Out
SYMBOL res -160 96 R90
WINDOW 0 0 56 VBottom 2
WINDOW 3 32 56 VTop 2
SYMATTR InstName R1
SYMATTR Value 1K
SYMBOL res 144 336 R90
WINDOW 0 0 56 VBottom 2
WINDOW 3 32 56 VTop 2
SYMATTR InstName R2
SYMATTR Value 10K
SYMBOL res 112 -48 R90
WINDOW 0 0 56 VBottom 2
WINDOW 3 32 56 VTop 2
SYMATTR InstName R3
SYMATTR Value 10K
SYMBOL res 112 -144 R90
WINDOW 0 0 56 VBottom 2
WINDOW 3 32 56 VTop 2
SYMATTR InstName R4
SYMATTR Value 10K
SYMBOL cap 528 272 R90
WINDOW 0 0 32 VBottom 2
WINDOW 3 32 32 VTop 2
SYMATTR InstName C1
SYMATTR Value 10nF
SYMATTR SpiceLine ""
SYMBOL cap 960 272 R90
WINDOW 0 0 32 VBottom 2
WINDOW 3 32 32 VTop 2
SYMATTR InstName C2
SYMATTR Value 10nF
SYMATTR SpiceLine ""
SYMBOL voltage -560 256 R0
WINDOW 39 -112 95 Left 2
WINDOW 3 24 96 Invisible 2
WINDOW 0 -51 -9 Left 2
SYMATTR SpiceLine ""
SYMATTR Value SINE(0 0.1V 10000)
SYMATTR InstName V1
SYMATTR Value2 AC 1
SYMBOL voltage -416 496 R0
WINDOW 123 0 0 Left 2
WINDOW 39 0 0 Left 2
SYMATTR Value2 ""
SYMATTR SpiceLine ""
SYMATTR InstName V2
SYMATTR Value 9V
SYMBOL cap -528 448 R0
SYMATTR InstName C3
SYMATTR Value 10µ
SYMBOL cap -528 576 R0
SYMATTR InstName C4
SYMATTR Value 10µ
SYMBOL res -304 -32 R90
WINDOW 0 0 56 VBottom 2
WINDOW 3 32 56 VTop 2
SYMATTR InstName R5
SYMATTR Value 100K
SYMBOL res -432 80 R90
WINDOW 0 0 56 VBottom 2
WINDOW 3 32 56 VTop 2
SYMATTR InstName R6
SYMATTR Value 47K
SYMBOL potentiometer -48 96 R90
WINDOW 0 59 18 VRight 2
WINDOW 3 36 88 Invisible 2
SYMATTR InstName U1
SYMATTR Value Rtot=25K wiper=.2
SYMBOL potentiometer -48 336 R90
WINDOW 0 58 23 VRight 2
WINDOW 3 36 88 Invisible 2
SYMATTR InstName U2
SYMATTR Value Rtot=25K wiper=0.5
SYMBOL res 688 272 R90
WINDOW 0 0 56 VBottom 2
WINDOW 3 32 56 VTop 2
SYMATTR InstName R7
SYMATTR Value 4.7K
SYMBOL res 256 272 R90
WINDOW 0 0 56 VBottom 2
WINDOW 3 32 56 VTop 2
SYMATTR InstName R8
SYMATTR Value 4.7K
SYMBOL potentiometer_standard 256 304 R270
WINDOW 0 109 16 Left 2
WINDOW 3 98 80 Left 2
WINDOW 39 109 111 Left 2
WINDOW 38 112 46 Left 2
SYMATTR InstName U3
SYMATTR Value Rtot=100K wiper={R}
SYMATTR SpiceLine Rtap=10k tap=0.5
SYMATTR SpiceModel pot_nlog
SYMBOL potentiometer_standard 688 304 R270
WINDOW 0 108 12 Left 2
WINDOW 3 106 78 Left 2
WINDOW 39 109 114 Left 2
WINDOW 38 109 44 Left 2
SYMATTR InstName U4
SYMATTR Value Rtot=100K wiper={R}
SYMATTR SpiceLine Rtap=10k tap=0.5
SYMATTR SpiceModel pot_nlog
SYMBOL Opamps\\UniversalOpamp2 -352 112 R0
WINDOW 0 18 -63 Left 2
SYMATTR InstName U5
SYMBOL Opamps\\UniversalOpamp2 80 128 R0
WINDOW 0 18 -63 Left 2
SYMATTR InstName U6
SYMBOL Opamps\\UniversalOpamp2 512 128 R0
WINDOW 0 18 -63 Left 2
SYMATTR InstName U7
SYMBOL Opamps\\UniversalOpamp2 944 128 R0
WINDOW 0 18 -63 Left 2
SYMATTR InstName U8
SYMBOL Opamps\\UniversalOpamp2 864 624 R0
WINDOW 0 18 -63 Left 2
SYMATTR InstName U9
SYMBOL res 912 480 R90
WINDOW 0 0 56 VBottom 2
WINDOW 3 32 56 VTop 2
SYMATTR InstName R9
SYMATTR Value 10K
SYMATTR SpiceLine ""
SYMBOL res 800 592 R90
WINDOW 0 0 56 VBottom 2
WINDOW 3 32 56 VTop 2
SYMATTR InstName R10
SYMATTR Value 10K
SYMATTR SpiceLine ""
SYMBOL spdt 1136 400 R90
SYMATTR InstName U10
SYMBOL spdt 1008 400 R90
SYMATTR InstName U11
TEXT 56 536 Left 2 !;tran 3
TEXT 56 592 Left 2 !.ac oct 20 10 20000
TEXT -240 536 Left 2 !.inc potentiometer.sub
TEXT -240 592 Left 2 !.step lin param R 0 1 0.1
TEXT -160 72 Left 2 ;Gain 25K
TEXT -136 312 Left 2 ;Q 25K
LINE Normal 384 384 320 304 2
LINE Normal 832 384 384 384 2
LINE Normal 752 304 832 384 2
LINE Normal 752 304 752 304 2
LINE Normal 752 304 752 304 2
